examples/output/ieee118_syn.xiidm
<?xml version="1.0" encoding="UTF-8"?>
<iidm:network xmlns:iidm="http://www.powsybl.org/schema/iidm/1_15" xmlns:apc="http://www.powsybl.org/schema/iidm/ext/active_power_control/1_2" xmlns:bv="http://www.powsybl.org/schema/iidm/ext/base_voltage_mapping/1_0" xmlns:slt="http://www.powsybl.org/schema/iidm/ext/slack_terminal/1_5" id="network" caseDate="2026-04-07T12:41:30.402Z" forecastDistance="0" sourceFormat="" minimumValidationLevel="STEADY_STATE_HYPOTHESIS">
    <iidm:substation id="s">
        <iidm:property name="CGMES.regionName" value="default region"/>
        <iidm:property name="CGMES.subRegionId" value="default region_SGR"/>
        <iidm:property name="CGMES.regionId" value="default region_GR"/>
        <iidm:voltageLevel id="sub_0" nominalV="345.0" lowVoltageLimit="327.75" highVoltageLimit="362.25" topologyKind="BUS_BREAKER">
            <iidm:busBreakerTopology>
                <iidm:bus id="bus_0" name="Bus_0"/>
            </iidm:busBreakerTopology>
            <iidm:generator id="gen_0_0" name="Gen_0" energySource="OTHER" minP="-4999.0" maxP="4999.0" voltageRegulatorOn="true" targetP="62.664672174740886" targetV="345.0" targetQ="0.0" bus="bus_0" connectableBus="bus_0">
                <iidm:alias type="CGMES.Terminal1">gen_0_0_SM_T_1</iidm:alias>
                <iidm:property name="CGMES.GeneratingUnit" value="gen_0_0_GU"/>
                <iidm:property name="CGMES.RegulatingControl" value="gen_0_0_RC"/>
                <iidm:minMaxReactiveLimits minQ="-20.740489348686346" maxQ="40.69959287003197"/>
            </iidm:generator>
        </iidm:voltageLevel>
        <iidm:voltageLevel id="sub_1" nominalV="345.0" lowVoltageLimit="327.75" highVoltageLimit="362.25" topologyKind="BUS_BREAKER">
            <iidm:busBreakerTopology>
                <iidm:bus id="bus_1" name="Bus_1"/>
            </iidm:busBreakerTopology>
            <iidm:load id="load_1_0" name="Load_1" loadType="UNDEFINED" p0="98.56243016745904" q0="0.0" bus="bus_1" connectableBus="bus_1">
                <iidm:alias type="CGMES.Terminal1">load_1_0_EC_T_1</iidm:alias>
            </iidm:load>
        </iidm:voltageLevel>
        <iidm:voltageLevel id="sub_2" nominalV="345.0" lowVoltageLimit="327.75" highVoltageLimit="362.25" topologyKind="BUS_BREAKER">
            <iidm:busBreakerTopology>
                <iidm:bus id="bus_2" name="Bus_2"/>
            </iidm:busBreakerTopology>
            <iidm:load id="load_2_1" name="Load_2" loadType="UNDEFINED" p0="82.42700907222569" q0="0.0" bus="bus_2" connectableBus="bus_2">
                <iidm:alias type="CGMES.Terminal1">load_2_1_EC_T_1</iidm:alias>
            </iidm:load>
        </iidm:voltageLevel>
        <iidm:voltageLevel id="sub_3" nominalV="345.0" lowVoltageLimit="327.75" highVoltageLimit="362.25" topologyKind="BUS_BREAKER">
            <iidm:busBreakerTopology>
                <iidm:bus id="bus_3" name="Bus_3"/>
            </iidm:busBreakerTopology>
            <iidm:generator id="gen_3_1" name="Gen_3" energySource="OTHER" minP="-4999.0" maxP="4999.0" voltageRegulatorOn="true" targetP="87.28523699000561" targetV="345.0" targetQ="0.0" bus="bus_3" connectableBus="bus_3">
                <iidm:alias type="CGMES.Terminal1">gen_3_1_SM_T_1</iidm:alias>
                <iidm:property name="CGMES.GeneratingUnit" value="gen_3_1_GU"/>
                <iidm:property name="CGMES.RegulatingControl" value="gen_3_1_RC"/>
                <iidm:minMaxReactiveLimits minQ="-7.5527221624772665" maxQ="47.627106330260254"/>
            </iidm:generator>
        </iidm:voltageLevel>
        <iidm:voltageLevel id="sub_4" nominalV="345.0" lowVoltageLimit="327.75" highVoltageLimit="362.25" topologyKind="BUS_BREAKER">
            <iidm:busBreakerTopology>
                <iidm:bus id="bus_4" name="Bus_4"/>
            </iidm:busBreakerTopology>
            <iidm:load id="load_4_2" name="Load_4" loadType="UNDEFINED" p0="39.91061238615692" q0="0.0" bus="bus_4" connectableBus="bus_4">
                <iidm:alias type="CGMES.Terminal1">load_4_2_EC_T_1</iidm:alias>
            </iidm:load>
        </iidm:voltageLevel>
        <iidm:voltageLevel id="sub_5" nominalV="345.0" lowVoltageLimit="327.75" highVoltageLimit="362.25" topologyKind="BUS_BREAKER">
            <iidm:busBreakerTopology>
                <iidm:bus id="bus_5" name="Bus_5"/>
            </iidm:busBreakerTopology>
            <iidm:load id="load_5_3" name="Load_5" loadType="UNDEFINED" p0="21.262010075390457" q0="0.0" bus="bus_5" connectableBus="bus_5">
                <iidm:alias type="CGMES.Terminal1">load_5_3_EC_T_1</iidm:alias>
            </iidm:load>
        </iidm:voltageLevel>
        <iidm:voltageLevel id="sub_6" nominalV="345.0" lowVoltageLimit="327.75" highVoltageLimit="362.25" topologyKind="BUS_BREAKER">
            <iidm:busBreakerTopology>
                <iidm:bus id="bus_6" name="Bus_6"/>
            </iidm:busBreakerTopology>
            <iidm:generator id="gen_6_2" name="Gen_6" energySource="OTHER" minP="-4999.0" maxP="4999.0" voltageRegulatorOn="true" targetP="0.0" targetV="345.0" targetQ="0.0" bus="bus_6" connectableBus="bus_6">
                <iidm:alias type="CGMES.Terminal1">gen_6_2_SM_T_1</iidm:alias>
                <iidm:property name="CGMES.GeneratingUnit" value="gen_6_2_GU"/>
                <iidm:property name="CGMES.RegulatingControl" value="gen_6_2_RC"/>
                <iidm:minMaxReactiveLimits minQ="-3.5021099059599488" maxQ="231.25302410878123"/>
            </iidm:generator>
        </iidm:voltageLevel>
        <iidm:voltageLevel id="sub_7" nominalV="345.0" lowVoltageLimit="327.75" highVoltageLimit="362.25" topologyKind="BUS_BREAKER">
            <iidm:busBreakerTopology>
                <iidm:bus id="bus_7" name="Bus_7"/>
            </iidm:busBreakerTopology>
            <iidm:load id="load_7_4" name="Load_7" loadType="UNDEFINED" p0="73.14863462139958" q0="0.0" bus="bus_7" connectableBus="bus_7">
                <iidm:alias type="CGMES.Terminal1">load_7_4_EC_T_1</iidm:alias>
            </iidm:load>
        </iidm:voltageLevel>
        <iidm:voltageLevel id="sub_8" nominalV="345.0" lowVoltageLimit="327.75" highVoltageLimit="362.25" topologyKind="BUS_BREAKER">
            <iidm:busBreakerTopology>
                <iidm:bus id="bus_8" name="Bus_8"/>
            </iidm:busBreakerTopology>
            <iidm:generator id="gen_8_3" name="Gen_8" energySource="OTHER" minP="-4999.0" maxP="4999.0" voltageRegulatorOn="true" targetP="153.0435391357606" targetV="345.0" targetQ="0.0" bus="bus_8" connectableBus="bus_8">
                <iidm:alias type="CGMES.Terminal1">gen_8_3_SM_T_1</iidm:alias>
                <iidm:property name="CGMES.GeneratingUnit" value="gen_8_3_GU"/>
                <iidm:property name="CGMES.RegulatingControl" value="gen_8_3_RC"/>
                <iidm:minMaxReactiveLimits minQ="-23.604639005502534" maxQ="53.30586768658131"/>
            </iidm:generator>
        </iidm:voltageLevel>
        <iidm:voltageLevel id="sub_9" nominalV="345.0" lowVoltageLimit="327.75" highVoltageLimit="362.25" topologyKind="BUS_BREAKER">
            <iidm:busBreakerTopology>
                <iidm:bus id="bus_9" name="Bus_9"/>
            </iidm:busBreakerTopology>
            <iidm:load id="load_9_5" name="Load_9" loadType="UNDEFINED" p0="140.86942200094532" q0="0.0" bus="bus_9" connectableBus="bus_9">
                <iidm:alias type="CGMES.Terminal1">load_9_5_EC_T_1</iidm:alias>
            </iidm:load>
        </iidm:voltageLevel>
        <iidm:voltageLevel id="sub_10" nominalV="345.0" lowVoltageLimit="327.75" highVoltageLimit="362.25" topologyKind="BUS_BREAKER">
            <iidm:busBreakerTopology>
                <iidm:bus id="bus_10" name="Bus_10"/>
            </iidm:busBreakerTopology>
            <iidm:generator id="gen_10_4" name="Gen_10" energySource="OTHER" minP="-4999.0" maxP="4999.0" voltageRegulatorOn="true" targetP="18.432191261677122" targetV="345.0" targetQ="0.0" bus="bus_10" connectableBus="bus_10">
                <iidm:alias type="CGMES.Terminal1">gen_10_4_SM_T_1</iidm:alias>
                <iidm:property name="CGMES.GeneratingUnit" value="gen_10_4_GU"/>
                <iidm:property name="CGMES.RegulatingControl" value="gen_10_4_RC"/>
                <iidm:minMaxReactiveLimits minQ="-3.982656870255718" maxQ="12.258805323770236"/>
            </iidm:generator>
        </iidm:voltageLevel>
        <iidm:voltageLevel id="sub_11" nominalV="345.0" lowVoltageLimit="327.75" highVoltageLimit="362.25" topologyKind="BUS_BREAKER">
            <iidm:busBreakerTopology>
                <iidm:bus id="bus_11" name="Bus_11"/>
            </iidm:busBreakerTopology>
            <iidm:generator id="gen_11_5" name="Gen_11" energySource="OTHER" minP="-4999.0" maxP="4999.0" voltageRegulatorOn="true" targetP="40.16601220720859" targetV="345.0" targetQ="0.0" bus="bus_11" connectableBus="bus_11">
                <iidm:alias type="CGMES.Terminal1">gen_11_5_SM_T_1</iidm:alias>
                <iidm:property name="CGMES.GeneratingUnit" value="gen_11_5_GU"/>
                <iidm:property name="CGMES.RegulatingControl" value="gen_11_5_RC"/>
                <iidm:minMaxReactiveLimits minQ="-9.740687373109004" maxQ="23.844221862879643"/>
            </iidm:generator>
        </iidm:voltageLevel>
        <iidm:voltageLevel id="sub_12" nominalV="345.0" lowVoltageLimit="327.75" highVoltageLimit="362.25" topologyKind="BUS_BREAKER">
            <iidm:busBreakerTopology>
                <iidm:bus id="bus_12" name="Bus_12"/>
            </iidm:busBreakerTopology>
            <iidm:load id="load_12_6" name="Load_12" loadType="UNDEFINED" p0="24.699494842109736" q0="0.0" bus="bus_12" connectableBus="bus_12">
                <iidm:alias type="CGMES.Terminal1">load_12_6_EC_T_1</iidm:alias>
            </iidm:load>
        </iidm:voltageLevel>
        <iidm:voltageLevel id="sub_13" nominalV="345.0" lowVoltageLimit="327.75" highVoltageLimit="362.25" topologyKind="BUS_BREAKER">
            <iidm:busBreakerTopology>
                <iidm:bus id="bus_13" name="Bus_13"/>
            </iidm:busBreakerTopology>
            <iidm:generator id="gen_13_6" name="Gen_13" energySource="OTHER" minP="-4999.0" maxP="4999.0" voltageRegulatorOn="true" targetP="121.62403493131669" targetV="345.0" targetQ="0.0" bus="bus_13" connectableBus="bus_13">
                <iidm:alias type="CGMES.Terminal1">gen_13_6_SM_T_1</iidm:alias>
                <iidm:property name="CGMES.GeneratingUnit" value="gen_13_6_GU"/>
                <iidm:property name="CGMES.RegulatingControl" value="gen_13_6_RC"/>
                <iidm:minMaxReactiveLimits minQ="-36.72715532752673" maxQ="102.52663149138"/>
            </iidm:generator>
        </iidm:voltageLevel>
        <iidm:voltageLevel id="sub_14" nominalV="161.0" lowVoltageLimit="152.95" highVoltageLimit="169.05" topologyKind="BUS_BREAKER">
            <iidm:busBreakerTopology>
                <iidm:bus id="bus_14" name="Bus_14"/>
            </iidm:busBreakerTopology>
            <iidm:load id="load_14_7" name="Load_14" loadType="UNDEFINED" p0="202.6965991914392" q0="0.0" bus="bus_14" connectableBus="bus_14">
                <iidm:alias type="CGMES.Terminal1">load_14_7_EC_T_1</iidm:alias>
            </iidm:load>
        </iidm:voltageLevel>
        <iidm:voltageLevel id="sub_15" nominalV="161.0" lowVoltageLimit="152.95" highVoltageLimit="169.05" topologyKind="BUS_BREAKER">
            <iidm:busBreakerTopology>
                <iidm:bus id="bus_15" name="Bus_15"/>
            </iidm:busBreakerTopology>
            <iidm:load id="load_15_8" name="Load_15" loadType="UNDEFINED" p0="75.88699574786945" q0="0.0" bus="bus_15" connectableBus="bus_15">
                <iidm:alias type="CGMES.Terminal1">load_15_8_EC_T_1</iidm:alias>
            </iidm:load>
        </iidm:voltageLevel>
        <iidm:voltageLevel id="sub_16" nominalV="138.0" lowVoltageLimit="131.1" highVoltageLimit="144.9" topologyKind="BUS_BREAKER">
            <iidm:busBreakerTopology>
                <iidm:bus id="bus_16" name="Bus_16"/>
            </iidm:busBreakerTopology>
            <iidm:generator id="gen_16_7" name="Gen_16" energySource="OTHER" minP="-4999.0" maxP="4999.0" voltageRegulatorOn="true" targetP="145.2930494638106" targetV="138.0" targetQ="0.0" bus="bus_16" connectableBus="bus_16">
                <iidm:alias type="CGMES.Terminal1">gen_16_7_SM_T_1</iidm:alias>
                <iidm:property name="CGMES.GeneratingUnit" value="gen_16_7_GU"/>
                <iidm:property name="CGMES.RegulatingControl" value="gen_16_7_RC"/>
                <iidm:minMaxReactiveLimits minQ="-11.807461808095683" maxQ="124.49583156161614"/>
            </iidm:generator>
        </iidm:voltageLevel>
        <iidm:voltageLevel id="sub_17" nominalV="138.0" lowVoltageLimit="131.1" highVoltageLimit="144.9" topologyKind="BUS_BREAKER">
            <iidm:busBreakerTopology>
                <iidm:bus id="bus_17" name="Bus_17"/>
            </iidm:busBreakerTopology>
            <iidm:generator id="gen_17_8" name="Gen_17" energySource="OTHER" minP="-4999.0" maxP="4999.0" voltageRegulatorOn="true" targetP="166.31917552804512" targetV="138.0" targetQ="0.0" bus="bus_17" connectableBus="bus_17">
                <iidm:alias type="CGMES.Terminal1">gen_17_8_SM_T_1</iidm:alias>
                <iidm:property name="CGMES.GeneratingUnit" value="gen_17_8_GU"/>
                <iidm:property name="CGMES.RegulatingControl" value="gen_17_8_RC"/>
                <iidm:minMaxReactiveLimits minQ="-42.00843481863132" maxQ="77.0530110308999"/>
            </iidm:generator>
        </iidm:voltageLevel>
        <iidm:voltageLevel id="sub_18" nominalV="138.0" lowVoltageLimit="131.1" highVoltageLimit="144.9" topologyKind="BUS_BREAKER">
            <iidm:busBreakerTopology>
                <iidm:bus id="bus_18" name="Bus_18"/>
            </iidm:busBreakerTopology>
            <iidm:load id="load_18_9" name="Load_18" loadType="UNDEFINED" p0="33.658210095845305" q0="0.0" bus="bus_18" connectableBus="bus_18">
                <iidm:alias type="CGMES.Terminal1">load_18_9_EC_T_1</iidm:alias>
            </iidm:load>
        </iidm:voltageLevel>
        <iidm:voltageLevel id="sub_19" nominalV="138.0" lowVoltageLimit="131.1" highVoltageLimit="144.9" topologyKind="BUS_BREAKER">
            <iidm:busBreakerTopology>
                <iidm:bus id="bus_19" name="Bus_19"/>
            </iidm:busBreakerTopology>
            <iidm:generator id="gen_19_9" name="Gen_19" energySource="OTHER" minP="-4999.0" maxP="4999.0" voltageRegulatorOn="true" targetP="141.59281307613622" targetV="138.0" targetQ="0.0" bus="bus_19" connectableBus="bus_19">
                <iidm:alias type="CGMES.Terminal1">gen_19_9_SM_T_1</iidm:alias>
                <iidm:property name="CGMES.GeneratingUnit" value="gen_19_9_GU"/>
                <iidm:property name="CGMES.RegulatingControl" value="gen_19_9_RC"/>
                <iidm:minMaxReactiveLimits minQ="-8.710575552572884" maxQ="55.49848258634526"/>
            </iidm:generator>
        </iidm:voltageLevel>
        <iidm:voltageLevel id="sub_20" nominalV="138.0" lowVoltageLimit="131.1" highVoltageLimit="144.9" topologyKind="BUS_BREAKER">
            <iidm:busBreakerTopology>
                <iidm:bus id="bus_20" name="Bus_20"/>
            </iidm:busBreakerTopology>
            <iidm:generator id="gen_20_10" name="Gen_20" energySource="OTHER" minP="-4999.0" maxP="4999.0" voltageRegulatorOn="true" targetP="90.91532645756313" targetV="138.0" targetQ="0.0" bus="bus_20" connectableBus="bus_20">
                <iidm:alias type="CGMES.Terminal1">gen_20_10_SM_T_1</iidm:alias>
                <iidm:property name="CGMES.GeneratingUnit" value="gen_20_10_GU"/>
                <iidm:property name="CGMES.RegulatingControl" value="gen_20_10_RC"/>
                <iidm:minMaxReactiveLimits minQ="-16.449939084989783" maxQ="39.62187950343833"/>
            </iidm:generator>
        </iidm:voltageLevel>
        <iidm:voltageLevel id="sub_21" nominalV="138.0" lowVoltageLimit="131.1" highVoltageLimit="144.9" topologyKind="BUS_BREAKER">
            <iidm:busBreakerTopology>
                <iidm:bus id="bus_21" name="Bus_21"/>
            </iidm:busBreakerTopology>
            <iidm:load id="load_21_10" name="Load_21" loadType="UNDEFINED" p0="43.060595194263634" q0="0.0" bus="bus_21" connectableBus="bus_21">
                <iidm:alias type="CGMES.Terminal1">load_21_10_EC_T_1</iidm:alias>
            </iidm:load>
        </iidm:voltageLevel>
        <iidm:voltageLevel id="sub_22" nominalV="138.0" lowVoltageLimit="131.1" highVoltageLimit="144.9" topologyKind="BUS_BREAKER">
            <iidm:busBreakerTopology>
                <iidm:bus id="bus_22" name="Bus_22"/>
            </iidm:busBreakerTopology>
            <iidm:generator id="gen_22_11" name="Gen_22" energySource="OTHER" minP="-4999.0" maxP="4999.0" voltageRegulatorOn="true" targetP="5.607167877328828" targetV="138.0" targetQ="0.0" bus="bus_22" connectableBus="bus_22">
                <iidm:alias type="CGMES.Terminal1">gen_22_11_SM_T_1</iidm:alias>
                <iidm:property name="CGMES.GeneratingUnit" value="gen_22_11_GU"/>
                <iidm:property name="CGMES.RegulatingControl" value="gen_22_11_RC"/>
                <iidm:minMaxReactiveLimits minQ="-1.3558909244593793" maxQ="3.5099228219385195"/>
            </iidm:generator>
        </iidm:voltageLevel>
        <iidm:voltageLevel id="sub_23" nominalV="138.0" lowVoltageLimit="131.1" highVoltageLimit="144.9" topologyKind="BUS_BREAKER">
            <iidm:busBreakerTopology>
                <iidm:bus id="bus_23" name="Bus_23"/>
            </iidm:busBreakerTopology>
            <iidm:generator id="gen_23_12" name="Gen_23" energySource="OTHER" minP="-4999.0" maxP="4999.0" voltageRegulatorOn="true" targetP="162.09622643680788" targetV="138.0" targetQ="0.0" bus="bus_23" connectableBus="bus_23">
                <iidm:alias type="CGMES.Terminal1">gen_23_12_SM_T_1</iidm:alias>
                <iidm:property name="CGMES.GeneratingUnit" value="gen_23_12_GU"/>
                <iidm:property name="CGMES.RegulatingControl" value="gen_23_12_RC"/>
                <iidm:minMaxReactiveLimits minQ="-20.569091634545543" maxQ="110.872756442276"/>
            </iidm:generator>
        </iidm:voltageLevel>
        <iidm:voltageLevel id="sub_24" nominalV="138.0" lowVoltageLimit="131.1" highVoltageLimit="144.9" topologyKind="BUS_BREAKER">
            <iidm:busBreakerTopology>
                <iidm:bus id="bus_24" name="Bus_24"/>
            </iidm:busBreakerTopology>
            <iidm:generator id="gen_24_13" name="Gen_24" energySource="OTHER" minP="-4999.0" maxP="4999.0" voltageRegulatorOn="true" targetP="43.612534562024045" targetV="138.0" targetQ="0.0" bus="bus_24" connectableBus="bus_24">
                <iidm:alias type="CGMES.Terminal1">gen_24_13_SM_T_1</iidm:alias>
                <iidm:property name="CGMES.GeneratingUnit" value="gen_24_13_GU"/>
                <iidm:property name="CGMES.RegulatingControl" value="gen_24_13_RC"/>
                <iidm:minMaxReactiveLimits minQ="-7.576522633504784" maxQ="21.499057911913514"/>
            </iidm:generator>
        </iidm:voltageLevel>
        <iidm:voltageLevel id="sub_25" nominalV="138.0" lowVoltageLimit="131.1" highVoltageLimit="144.9" topologyKind="BUS_BREAKER">
            <iidm:busBreakerTopology>
                <iidm:bus id="bus_25" name="Bus_25"/>
            </iidm:busBreakerTopology>
            <iidm:generator id="gen_25_14" name="Gen_25" energySource="OTHER" minP="-4999.0" maxP="4999.0" voltageRegulatorOn="true" targetP="57.41701955061102" targetV="138.0" targetQ="0.0" bus="bus_25" connectableBus="bus_25">
                <iidm:alias type="CGMES.Terminal1">gen_25_14_SM_T_1</iidm:alias>
                <iidm:property name="CGMES.GeneratingUnit" value="gen_25_14_GU"/>
                <iidm:property name="CGMES.RegulatingControl" value="gen_25_14_RC"/>
                <iidm:minMaxReactiveLimits minQ="-4.186814816241841" maxQ="22.389390505740796"/>
            </iidm:generator>
        </iidm:voltageLevel>
        <iidm:voltageLevel id="sub_26" nominalV="138.0" lowVoltageLimit="131.1" highVoltageLimit="144.9" topologyKind="BUS_BREAKER">
            <iidm:busBreakerTopology>
                <iidm:bus id="bus_26" name="Bus_26"/>
            </iidm:busBreakerTopology>
            <iidm:generator id="gen_26_15" name="Gen_26" energySource="OTHER" minP="-4999.0" maxP="4999.0" voltageRegulatorOn="true" targetP="129.77469901406656" targetV="138.0" targetQ="0.0" bus="bus_26" connectableBus="bus_26">
                <iidm:alias type="CGMES.Terminal1">gen_26_15_SM_T_1</iidm:alias>
                <iidm:property name="CGMES.GeneratingUnit" value="gen_26_15_GU"/>
                <iidm:property name="CGMES.RegulatingControl" value="gen_26_15_RC"/>
                <iidm:minMaxReactiveLimits minQ="-0.19811100740992538" maxQ="71.3170663920592"/>
            </iidm:generator>
        </iidm:voltageLevel>
        <iidm:voltageLevel id="sub_27" nominalV="138.0" lowVoltageLimit="131.1" highVoltageLimit="144.9" topologyKind="BUS_BREAKER">
            <iidm:busBreakerTopology>
                <iidm:bus id="bus_27" name="Bus_27"/>
            </iidm:busBreakerTopology>
            <iidm:generator id="gen_27_16" name="Gen_27" energySource="OTHER" minP="-4999.0" maxP="4999.0" voltageRegulatorOn="true" targetP="28.30929420447393" targetV="138.0" targetQ="0.0" bus="bus_27" connectableBus="bus_27">
                <iidm:alias type="CGMES.Terminal1">gen_27_16_SM_T_1</iidm:alias>
                <iidm:property name="CGMES.GeneratingUnit" value="gen_27_16_GU"/>
                <iidm:property name="CGMES.RegulatingControl" value="gen_27_16_RC"/>
                <iidm:minMaxReactiveLimits minQ="-7.259744182283818" maxQ="18.10980330259162"/>
            </iidm:generator>
        </iidm:voltageLevel>
        <iidm:voltageLevel id="sub_28" nominalV="138.0" lowVoltageLimit="131.1" highVoltageLimit="144.9" topologyKind="BUS_BREAKER">
            <iidm:busBreakerTopology>
                <iidm:bus id="bus_28" name="Bus_28"/>
            </iidm:busBreakerTopology>
            <iidm:load id="load_28_11" name="Load_28" loadType="UNDEFINED" p0="302.4339944943228" q0="0.0" bus="bus_28" connectableBus="bus_28">
                <iidm:alias type="CGMES.Terminal1">load_28_11_EC_T_1</iidm:alias>
            </iidm:load>
        </iidm:voltageLevel>
        <iidm:voltageLevel id="sub_29" nominalV="138.0" lowVoltageLimit="131.1" highVoltageLimit="144.9" topologyKind="BUS_BREAKER">
            <iidm:busBreakerTopology>
                <iidm:bus id="bus_29" name="Bus_29"/>
            </iidm:busBreakerTopology>
            <iidm:generator id="gen_29_17" name="Gen_29" energySource="OTHER" minP="-4999.0" maxP="4999.0" voltageRegulatorOn="true" targetP="21.465197264717474" targetV="138.0" targetQ="0.0" bus="bus_29" connectableBus="bus_29">
                <iidm:alias type="CGMES.Terminal1">gen_29_17_SM_T_1</iidm:alias>
                <iidm:property name="CGMES.GeneratingUnit" value="gen_29_17_GU"/>
                <iidm:property name="CGMES.RegulatingControl" value="gen_29_17_RC"/>
                <iidm:minMaxReactiveLimits minQ="-3.153776261671832" maxQ="11.99843443062226"/>
            </iidm:generator>
        </iidm:voltageLevel>
        <iidm:voltageLevel id="sub_30" nominalV="138.0" lowVoltageLimit="131.1" highVoltageLimit="144.9" topologyKind="BUS_BREAKER">
            <iidm:busBreakerTopology>
                <iidm:bus id="bus_30" name="Bus_30"/>
            </iidm:busBreakerTopology>
            <iidm:load id="load_30_12" name="Load_30" loadType="UNDEFINED" p0="88.31592737853704" q0="0.0" bus="bus_30" connectableBus="bus_30">
                <iidm:alias type="CGMES.Terminal1">load_30_12_EC_T_1</iidm:alias>
            </iidm:load>
        </iidm:voltageLevel>
        <iidm:voltageLevel id="sub_31" nominalV="138.0" lowVoltageLimit="131.1" highVoltageLimit="144.9" topologyKind="BUS_BREAKER">
            <iidm:busBreakerTopology>
                <iidm:bus id="bus_31" name="Bus_31"/>
            </iidm:busBreakerTopology>
            <iidm:generator id="gen_31_18" name="Gen_31" energySource="OTHER" minP="-4999.0" maxP="4999.0" voltageRegulatorOn="true" targetP="2.9015375217230748" targetV="138.0" targetQ="0.0" bus="bus_31" connectableBus="bus_31">
                <iidm:alias type="CGMES.Terminal1">gen_31_18_SM_T_1</iidm:alias>
                <iidm:property name="CGMES.GeneratingUnit" value="gen_31_18_GU"/>
                <iidm:property name="CGMES.RegulatingControl" value="gen_31_18_RC"/>
                <iidm:minMaxReactiveLimits minQ="-0.48300627582462186" maxQ="1.019616453181515"/>
            </iidm:generator>
        </iidm:voltageLevel>
        <iidm:voltageLevel id="sub_32" nominalV="138.0" lowVoltageLimit="131.1" highVoltageLimit="144.9" topologyKind="BUS_BREAKER">
            <iidm:busBreakerTopology>
                <iidm:bus id="bus_32" name="Bus_32"/>
            </iidm:busBreakerTopology>
            <iidm:generator id="gen_32_19" name="Gen_32" energySource="OTHER" minP="-4999.0" maxP="4999.0" voltageRegulatorOn="true" targetP="91.49220772823871" targetV="138.0" targetQ="0.0" bus="bus_32" connectableBus="bus_32">
                <iidm:alias type="CGMES.Terminal1">gen_32_19_SM_T_1</iidm:alias>
                <iidm:property name="CGMES.GeneratingUnit" value="gen_32_19_GU"/>
                <iidm:property name="CGMES.RegulatingControl" value="gen_32_19_RC"/>
                <iidm:minMaxReactiveLimits minQ="-22.03232745362298" maxQ="67.91873021067879"/>
            </iidm:generator>
        </iidm:voltageLevel>
        <iidm:voltageLevel id="sub_33" nominalV="138.0" lowVoltageLimit="131.1" highVoltageLimit="144.9" topologyKind="BUS_BREAKER">
            <iidm:busBreakerTopology>
                <iidm:bus id="bus_33" name="Bus_33"/>
            </iidm:busBreakerTopology>
            <iidm:load id="load_33_13" name="Load_33" loadType="UNDEFINED" p0="163.75082305086892" q0="0.0" bus="bus_33" connectableBus="bus_33">
                <iidm:alias type="CGMES.Terminal1">load_33_13_EC_T_1</iidm:alias>
            </iidm:load>
        </iidm:voltageLevel>
        <iidm:voltageLevel id="sub_34" nominalV="138.0" lowVoltageLimit="131.1" highVoltageLimit="144.9" topologyKind="BUS_BREAKER">
            <iidm:busBreakerTopology>
                <iidm:bus id="bus_34" name="Bus_34"/>
            </iidm:busBreakerTopology>
            <iidm:generator id="gen_34_20" name="Gen_34" energySource="OTHER" minP="-4999.0" maxP="4999.0" voltageRegulatorOn="true" targetP="18.341184352698495" targetV="138.0" targetQ="0.0" bus="bus_34" connectableBus="bus_34">
                <iidm:alias type="CGMES.Terminal1">gen_34_20_SM_T_1</iidm:alias>
                <iidm:property name="CGMES.GeneratingUnit" value="gen_34_20_GU"/>
                <iidm:property name="CGMES.RegulatingControl" value="gen_34_20_RC"/>
                <iidm:minMaxReactiveLimits minQ="-2.1351267097528903" maxQ="10.004004403894267"/>
            </iidm:generator>
        </iidm:voltageLevel>
        <iidm:voltageLevel id="sub_35" nominalV="138.0" lowVoltageLimit="131.1" highVoltageLimit="144.9" topologyKind="BUS_BREAKER">
            <iidm:busBreakerTopology>
                <iidm:bus id="bus_35" name="Bus_35"/>
            </iidm:busBreakerTopology>
            <iidm:generator id="gen_35_21" name="Gen_35" energySource="OTHER" minP="-4999.0" maxP="4999.0" voltageRegulatorOn="true" targetP="2.956857632367145" targetV="138.0" targetQ="0.0" bus="bus_35" connectableBus="bus_35">
                <iidm:alias type="CGMES.Terminal1">gen_35_21_SM_T_1</iidm:alias>
                <iidm:property name="CGMES.GeneratingUnit" value="gen_35_21_GU"/>
                <iidm:property name="CGMES.RegulatingControl" value="gen_35_21_RC"/>
                <iidm:minMaxReactiveLimits minQ="-0.8159308024012075" maxQ="1.6094909162796625"/>
            </iidm:generator>
        </iidm:voltageLevel>
        <iidm:voltageLevel id="sub_36" nominalV="138.0" lowVoltageLimit="131.1" highVoltageLimit="144.9" topologyKind="BUS_BREAKER">
            <iidm:busBreakerTopology>
                <iidm:bus id="bus_36" name="Bus_36"/>
            </iidm:busBreakerTopology>
            <iidm:load id="load_36_14" name="Load_36" loadType="UNDEFINED" p0="40.12660005543472" q0="0.0" bus="bus_36" connectableBus="bus_36">
                <iidm:alias type="CGMES.Terminal1">load_36_14_EC_T_1</iidm:alias>
            </iidm:load>
        </iidm:voltageLevel>
        <iidm:voltageLevel id="sub_37" nominalV="138.0" lowVoltageLimit="131.1" highVoltageLimit="144.9" topologyKind="BUS_BREAKER">
            <iidm:busBreakerTopology>
                <iidm:bus id="bus_37" name="Bus_37"/>
            </iidm:busBreakerTopology>
            <iidm:generator id="gen_37_22" name="Gen_37" energySource="OTHER" minP="-4999.0" maxP="4999.0" voltageRegulatorOn="true" targetP="0.0" targetV="138.0" targetQ="0.0" bus="bus_37" connectableBus="bus_37">
                <iidm:alias type="CGMES.Terminal1">gen_37_22_SM_T_1</iidm:alias>
                <iidm:property name="CGMES.GeneratingUnit" value="gen_37_22_GU"/>
                <iidm:property name="CGMES.RegulatingControl" value="gen_37_22_RC"/>
                <iidm:minMaxReactiveLimits minQ="-91.56521704609295" maxQ="127.20535600078196"/>
            </iidm:generator>
        </iidm:voltageLevel>
        <iidm:voltageLevel id="sub_38" nominalV="138.0" lowVoltageLimit="131.1" highVoltageLimit="144.9" topologyKind="BUS_BREAKER">
            <iidm:busBreakerTopology>
                <iidm:bus id="bus_38" name="Bus_38"/>
            </iidm:busBreakerTopology>
            <iidm:generator id="gen_38_23" name="Gen_38" energySource="OTHER" minP="-4999.0" maxP="4999.0" voltageRegulatorOn="true" targetP="0.0" targetV="138.0" targetQ="0.0" bus="bus_38" connectableBus="bus_38">
                <iidm:alias type="CGMES.Terminal1">gen_38_23_SM_T_1</iidm:alias>
                <iidm:property name="CGMES.GeneratingUnit" value="gen_38_23_GU"/>
                <iidm:property name="CGMES.RegulatingControl" value="gen_38_23_RC"/>
                <iidm:minMaxReactiveLimits minQ="-0.38566551867401416" maxQ="1.163014163934761"/>
            </iidm:generator>
        </iidm:voltageLevel>
        <iidm:voltageLevel id="sub_39" nominalV="138.0" lowVoltageLimit="131.1" highVoltageLimit="144.9" topologyKind="BUS_BREAKER">
            <iidm:busBreakerTopology>
                <iidm:bus id="bus_39" name="Bus_39"/>
            </iidm:busBreakerTopology>
            <iidm:load id="load_39_15" name="Load_39" loadType="UNDEFINED" p0="85.14720536312979" q0="0.0" bus="bus_39" connectableBus="bus_39">
                <iidm:alias type="CGMES.Terminal1">load_39_15_EC_T_1</iidm:alias>
            </iidm:load>
        </iidm:voltageLevel>
        <iidm:voltageLevel id="sub_40" nominalV="138.0" lowVoltageLimit="131.1" highVoltageLimit="144.9" topologyKind="BUS_BREAKER">
            <iidm:busBreakerTopology>
                <iidm:bus id="bus_40" name="Bus_40"/>
            </iidm:busBreakerTopology>
            <iidm:load id="load_40_16" name="Load_40" loadType="UNDEFINED" p0="122.43244215310555" q0="0.0" bus="bus_40" connectableBus="bus_40">
                <iidm:alias type="CGMES.Terminal1">load_40_16_EC_T_1</iidm:alias>
            </iidm:load>
        </iidm:voltageLevel>
        <iidm:voltageLevel id="sub_41" nominalV="138.0" lowVoltageLimit="131.1" highVoltageLimit="144.9" topologyKind="BUS_BREAKER">
            <iidm:busBreakerTopology>
                <iidm:bus id="bus_41" name="Bus_41"/>
            </iidm:busBreakerTopology>
            <iidm:generator id="gen_41_24" name="Gen_41" energySource="OTHER" minP="-4999.0" maxP="4999.0" voltageRegulatorOn="true" targetP="172.24618461746525" targetV="138.0" targetQ="0.0" bus="bus_41" connectableBus="bus_41">
                <iidm:alias type="CGMES.Terminal1">gen_41_24_SM_T_1</iidm:alias>
                <iidm:property name="CGMES.GeneratingUnit" value="gen_41_24_GU"/>
                <iidm:property name="CGMES.RegulatingControl" value="gen_41_24_RC"/>
                <iidm:minMaxReactiveLimits minQ="-48.629459275564955" maxQ="81.7188681079072"/>
            </iidm:generator>
        </iidm:voltageLevel>
        <iidm:voltageLevel id="sub_42" nominalV="138.0" lowVoltageLimit="131.1" highVoltageLimit="144.9" topologyKind="BUS_BREAKER">
            <iidm:busBreakerTopology>
                <iidm:bus id="bus_42" name="Bus_42"/>
            </iidm:busBreakerTopology>
            <iidm:generator id="gen_42_25" name="Gen_42" energySource="OTHER" minP="-4999.0" maxP="4999.0" voltageRegulatorOn="true" targetP="62.227406611561634" targetV="138.0" targetQ="0.0" bus="bus_42" connectableBus="bus_42">
                <iidm:alias type="CGMES.Terminal1">gen_42_25_SM_T_1</iidm:alias>
                <iidm:property name="CGMES.GeneratingUnit" value="gen_42_25_GU"/>
                <iidm:property name="CGMES.RegulatingControl" value="gen_42_25_RC"/>
                <iidm:minMaxReactiveLimits minQ="-2.0098628655032904" maxQ="25.968923567036036"/>
            </iidm:generator>
        </iidm:voltageLevel>
        <iidm:voltageLevel id="sub_43" nominalV="138.0" lowVoltageLimit="131.1" highVoltageLimit="144.9" topologyKind="BUS_BREAKER">
            <iidm:busBreakerTopology>
                <iidm:bus id="bus_43" name="Bus_43"/>
            </iidm:busBreakerTopology>
            <iidm:generator id="gen_43_26" name="Gen_43" energySource="OTHER" minP="-4999.0" maxP="4999.0" voltageRegulatorOn="true" targetP="9.91883508912235" targetV="138.0" targetQ="0.0" bus="bus_43" connectableBus="bus_43">
                <iidm:alias type="CGMES.Terminal1">gen_43_26_SM_T_1</iidm:alias>
                <iidm:property name="CGMES.GeneratingUnit" value="gen_43_26_GU"/>
                <iidm:property name="CGMES.RegulatingControl" value="gen_43_26_RC"/>
                <iidm:minMaxReactiveLimits minQ="-2.220806705098701" maxQ="5.602186303644255"/>
            </iidm:generator>
        </iidm:voltageLevel>
        <iidm:voltageLevel id="sub_44" nominalV="138.0" lowVoltageLimit="131.1" highVoltageLimit="144.9" topologyKind="BUS_BREAKER">
            <iidm:busBreakerTopology>
                <iidm:bus id="bus_44" name="Bus_44"/>
            </iidm:busBreakerTopology>
            <iidm:load id="load_44_17" name="Load_44" loadType="UNDEFINED" p0="32.22190429231927" q0="0.0" bus="bus_44" connectableBus="bus_44">
                <iidm:alias type="CGMES.Terminal1">load_44_17_EC_T_1</iidm:alias>
            </iidm:load>
        </iidm:voltageLevel>
        <iidm:voltageLevel id="sub_45" nominalV="138.0" lowVoltageLimit="131.1" highVoltageLimit="144.9" topologyKind="BUS_BREAKER">
            <iidm:busBreakerTopology>
                <iidm:bus id="bus_45" name="Bus_45"/>
            </iidm:busBreakerTopology>
            <iidm:generator id="gen_45_27" name="Gen_45" energySource="OTHER" minP="-4999.0" maxP="4999.0" voltageRegulatorOn="true" targetP="76.41488963276899" targetV="138.0" targetQ="0.0" bus="bus_45" connectableBus="bus_45">
                <iidm:alias type="CGMES.Terminal1">gen_45_27_SM_T_1</iidm:alias>
                <iidm:property name="CGMES.GeneratingUnit" value="gen_45_27_GU"/>
                <iidm:property name="CGMES.RegulatingControl" value="gen_45_27_RC"/>
                <iidm:minMaxReactiveLimits minQ="-27.996373364766992" maxQ="29.082717900334295"/>
            </iidm:generator>
        </iidm:voltageLevel>
        <iidm:voltageLevel id="sub_46" nominalV="138.0" lowVoltageLimit="131.1" highVoltageLimit="144.9" topologyKind="BUS_BREAKER">
            <iidm:busBreakerTopology>
                <iidm:bus id="bus_46" name="Bus_46"/>
            </iidm:busBreakerTopology>
            <iidm:load id="load_46_18" name="Load_46" loadType="UNDEFINED" p0="667.5441272534935" q0="0.0" bus="bus_46" connectableBus="bus_46">
                <iidm:alias type="CGMES.Terminal1">load_46_18_EC_T_1</iidm:alias>
            </iidm:load>
        </iidm:voltageLevel>
        <iidm:voltageLevel id="sub_47" nominalV="138.0" lowVoltageLimit="131.1" highVoltageLimit="144.9" topologyKind="BUS_BREAKER">
            <iidm:busBreakerTopology>
                <iidm:bus id="bus_47" name="Bus_47"/>
            </iidm:busBreakerTopology>
            <iidm:generator id="gen_47_28" name="Gen_47" energySource="OTHER" minP="-4999.0" maxP="4999.0" voltageRegulatorOn="true" targetP="47.99774851825246" targetV="138.0" targetQ="0.0" bus="bus_47" connectableBus="bus_47">
                <iidm:alias type="CGMES.Terminal1">gen_47_28_SM_T_1</iidm:alias>
                <iidm:property name="CGMES.GeneratingUnit" value="gen_47_28_GU"/>
                <iidm:property name="CGMES.RegulatingControl" value="gen_47_28_RC"/>
                <iidm:minMaxReactiveLimits minQ="-13.15896756777187" maxQ="23.072729071655708"/>
            </iidm:generator>
        </iidm:voltageLevel>
        <iidm:voltageLevel id="sub_48" nominalV="138.0" lowVoltageLimit="131.1" highVoltageLimit="144.9" topologyKind="BUS_BREAKER">
            <iidm:busBreakerTopology>
                <iidm:bus id="bus_48" name="Bus_48"/>
            </iidm:busBreakerTopology>
            <iidm:generator id="gen_48_29" name="Gen_48" energySource="OTHER" minP="-4999.0" maxP="4999.0" voltageRegulatorOn="true" targetP="51.84247812181327" targetV="138.0" targetQ="0.0" bus="bus_48" connectableBus="bus_48">
                <iidm:alias type="CGMES.Terminal1">gen_48_29_SM_T_1</iidm:alias>
                <iidm:property name="CGMES.GeneratingUnit" value="gen_48_29_GU"/>
                <iidm:property name="CGMES.RegulatingControl" value="gen_48_29_RC"/>
                <iidm:minMaxReactiveLimits minQ="-5.354733832240549" maxQ="20.221534038178483"/>
            </iidm:generator>
        </iidm:voltageLevel>
        <iidm:voltageLevel id="sub_49" nominalV="138.0" lowVoltageLimit="131.1" highVoltageLimit="144.9" topologyKind="BUS_BREAKER">
            <iidm:busBreakerTopology>
                <iidm:bus id="bus_49" name="Bus_49"/>
            </iidm:busBreakerTopology>
            <iidm:generator id="gen_49_30" name="Gen_49" energySource="OTHER" minP="-4999.0" maxP="4999.0" voltageRegulatorOn="true" targetP="86.50663514183587" targetV="138.0" targetQ="0.0" bus="bus_49" connectableBus="bus_49">
                <iidm:alias type="CGMES.Terminal1">gen_49_30_SM_T_1</iidm:alias>
                <iidm:property name="CGMES.GeneratingUnit" value="gen_49_30_GU"/>
                <iidm:property name="CGMES.RegulatingControl" value="gen_49_30_RC"/>
                <iidm:minMaxReactiveLimits minQ="-18.37408633809738" maxQ="55.03552147525032"/>
            </iidm:generator>
        </iidm:voltageLevel>
        <iidm:voltageLevel id="sub_50" nominalV="138.0" lowVoltageLimit="131.1" highVoltageLimit="144.9" topologyKind="BUS_BREAKER">
            <iidm:busBreakerTopology>
                <iidm:bus id="bus_50" name="Bus_50"/>
            </iidm:busBreakerTopology>
            <iidm:generator id="gen_50_31" name="Gen_50" energySource="OTHER" minP="-4999.0" maxP="4999.0" voltageRegulatorOn="true" targetP="54.95353729002386" targetV="138.0" targetQ="0.0" bus="bus_50" connectableBus="bus_50">
                <iidm:alias type="CGMES.Terminal1">gen_50_31_SM_T_1</iidm:alias>
                <iidm:property name="CGMES.GeneratingUnit" value="gen_50_31_GU"/>
                <iidm:property name="CGMES.RegulatingControl" value="gen_50_31_RC"/>
                <iidm:minMaxReactiveLimits minQ="-10.45040215695889" maxQ="32.86857621784964"/>
            </iidm:generator>
        </iidm:voltageLevel>
        <iidm:voltageLevel id="sub_51" nominalV="138.0" lowVoltageLimit="131.1" highVoltageLimit="144.9" topologyKind="BUS_BREAKER">
            <iidm:busBreakerTopology>
                <iidm:bus id="bus_51" name="Bus_51"/>
            </iidm:busBreakerTopology>
            <iidm:load id="load_51_19" name="Load_51" loadType="UNDEFINED" p0="78.53902069511408" q0="0.0" bus="bus_51" connectableBus="bus_51">
                <iidm:alias type="CGMES.Terminal1">load_51_19_EC_T_1</iidm:alias>
            </iidm:load>
        </iidm:voltageLevel>
        <iidm:voltageLevel id="sub_52" nominalV="138.0" lowVoltageLimit="131.1" highVoltageLimit="144.9" topologyKind="BUS_BREAKER">
            <iidm:busBreakerTopology>
                <iidm:bus id="bus_52" name="Bus_52"/>
            </iidm:busBreakerTopology>
            <iidm:generator id="gen_52_32" name="Gen_52" energySource="OTHER" minP="-4999.0" maxP="4999.0" voltageRegulatorOn="true" targetP="240.78637033554455" targetV="138.0" targetQ="0.0" bus="bus_52" connectableBus="bus_52">
                <iidm:alias type="CGMES.Terminal1">gen_52_32_SM_T_1</iidm:alias>
                <iidm:property name="CGMES.GeneratingUnit" value="gen_52_32_GU"/>
                <iidm:property name="CGMES.RegulatingControl" value="gen_52_32_RC"/>
                <iidm:minMaxReactiveLimits minQ="-23.119717461115417" maxQ="207.01931006359044"/>
            </iidm:generator>
        </iidm:voltageLevel>
        <iidm:voltageLevel id="sub_53" nominalV="138.0" lowVoltageLimit="131.1" highVoltageLimit="144.9" topologyKind="BUS_BREAKER">
            <iidm:busBreakerTopology>
                <iidm:bus id="bus_53" name="Bus_53"/>
            </iidm:busBreakerTopology>
            <iidm:generator id="gen_53_33" name="Gen_53" energySource="OTHER" minP="-4999.0" maxP="4999.0" voltageRegulatorOn="true" targetP="88.85116935621" targetV="138.0" targetQ="0.0" bus="bus_53" connectableBus="bus_53">
                <iidm:alias type="CGMES.Terminal1">gen_53_33_SM_T_1</iidm:alias>
                <iidm:property name="CGMES.GeneratingUnit" value="gen_53_33_GU"/>
                <iidm:property name="CGMES.RegulatingControl" value="gen_53_33_RC"/>
                <iidm:minMaxReactiveLimits minQ="-22.252695657372247" maxQ="29.789424361750378"/>
            </iidm:generator>
        </iidm:voltageLevel>
        <iidm:voltageLevel id="sub_54" nominalV="138.0" lowVoltageLimit="131.1" highVoltageLimit="144.9" topologyKind="BUS_BREAKER">
            <iidm:busBreakerTopology>
                <iidm:bus id="bus_54" name="Bus_54"/>
            </iidm:busBreakerTopology>
            <iidm:generator id="gen_54_34" name="Gen_54" energySource="OTHER" minP="-4999.0" maxP="4999.0" voltageRegulatorOn="true" targetP="12.532749542476024" targetV="138.0" targetQ="0.0" bus="bus_54" connectableBus="bus_54">
                <iidm:alias type="CGMES.Terminal1">gen_54_34_SM_T_1</iidm:alias>
                <iidm:property name="CGMES.GeneratingUnit" value="gen_54_34_GU"/>
                <iidm:property name="CGMES.RegulatingControl" value="gen_54_34_RC"/>
                <iidm:minMaxReactiveLimits minQ="-2.633898770173823" maxQ="4.19002535338818"/>
            </iidm:generator>
        </iidm:voltageLevel>
        <iidm:voltageLevel id="sub_55" nominalV="138.0" lowVoltageLimit="131.1" highVoltageLimit="144.9" topologyKind="BUS_BREAKER">
            <iidm:busBreakerTopology>
                <iidm:bus id="bus_55" name="Bus_55"/>
            </iidm:busBreakerTopology>
            <iidm:generator id="gen_55_35" name="Gen_55" energySource="OTHER" minP="-4999.0" maxP="4999.0" voltageRegulatorOn="true" targetP="38.16115211625245" targetV="138.0" targetQ="0.0" bus="bus_55" connectableBus="bus_55">
                <iidm:alias type="CGMES.Terminal1">gen_55_35_SM_T_1</iidm:alias>
                <iidm:property name="CGMES.GeneratingUnit" value="gen_55_35_GU"/>
                <iidm:property name="CGMES.RegulatingControl" value="gen_55_35_RC"/>
                <iidm:minMaxReactiveLimits minQ="-8.450826313983022" maxQ="19.65646089050107"/>
            </iidm:generator>
        </iidm:voltageLevel>
        <iidm:voltageLevel id="sub_56" nominalV="138.0" lowVoltageLimit="131.1" highVoltageLimit="144.9" topologyKind="BUS_BREAKER">
            <iidm:busBreakerTopology>
                <iidm:bus id="bus_56" name="Bus_56"/>
            </iidm:busBreakerTopology>
            <iidm:generator id="gen_56_36" name="Gen_56" energySource="OTHER" minP="-4999.0" maxP="4999.0" voltageRegulatorOn="true" targetP="125.00744547092108" targetV="138.0" targetQ="0.0" bus="bus_56" connectableBus="bus_56">
                <iidm:alias type="CGMES.Terminal1">gen_56_36_SM_T_1</iidm:alias>
                <iidm:property name="CGMES.GeneratingUnit" value="gen_56_36_GU"/>
                <iidm:property name="CGMES.RegulatingControl" value="gen_56_36_RC"/>
                <iidm:minMaxReactiveLimits minQ="-13.88681927024805" maxQ="61.58943786462372"/>
            </iidm:generator>
        </iidm:voltageLevel>
        <iidm:voltageLevel id="sub_57" nominalV="138.0" lowVoltageLimit="131.1" highVoltageLimit="144.9" topologyKind="BUS_BREAKER">
            <iidm:busBreakerTopology>
                <iidm:bus id="bus_57" name="Bus_57"/>
            </iidm:busBreakerTopology>
            <iidm:generator id="gen_57_37" name="Gen_57" energySource="OTHER" minP="-4999.0" maxP="4999.0" voltageRegulatorOn="true" targetP="1181.9613943501172" targetV="138.0" targetQ="0.0" bus="bus_57" connectableBus="bus_57">
                <iidm:alias type="CGMES.Terminal1">gen_57_37_SM_T_1</iidm:alias>
                <iidm:property name="CGMES.GeneratingUnit" value="gen_57_37_GU"/>
                <iidm:property name="CGMES.RegulatingControl" value="gen_57_37_RC"/>
                <iidm:minMaxReactiveLimits minQ="-194.61133035212782" maxQ="641.5353095623383"/>
            </iidm:generator>
        </iidm:voltageLevel>
        <iidm:voltageLevel id="sub_58" nominalV="138.0" lowVoltageLimit="131.1" highVoltageLimit="144.9" topologyKind="BUS_BREAKER">
            <iidm:busBreakerTopology>
                <iidm:bus id="bus_58" name="Bus_58"/>
            </iidm:busBreakerTopology>
            <iidm:load id="load_58_20" name="Load_58" loadType="UNDEFINED" p0="178.1878697830708" q0="0.0" bus="bus_58" connectableBus="bus_58">
                <iidm:alias type="CGMES.Terminal1">load_58_20_EC_T_1</iidm:alias>
            </iidm:load>
        </iidm:voltageLevel>
        <iidm:voltageLevel id="sub_59" nominalV="138.0" lowVoltageLimit="131.1" highVoltageLimit="144.9" topologyKind="BUS_BREAKER">
            <iidm:busBreakerTopology>
                <iidm:bus id="bus_59" name="Bus_59"/>
            </iidm:busBreakerTopology>
            <iidm:generator id="gen_59_38" name="Gen_59" energySource="OTHER" minP="-4999.0" maxP="4999.0" voltageRegulatorOn="true" targetP="20.284994961452213" targetV="138.0" targetQ="0.0" bus="bus_59" connectableBus="bus_59">
                <iidm:alias type="CGMES.Terminal1">gen_59_38_SM_T_1</iidm:alias>
                <iidm:property name="CGMES.GeneratingUnit" value="gen_59_38_GU"/>
                <iidm:property name="CGMES.RegulatingControl" value="gen_59_38_RC"/>
                <iidm:minMaxReactiveLimits minQ="-2.807951018252724" maxQ="10.665584787649022"/>
            </iidm:generator>
        </iidm:voltageLevel>
        <iidm:voltageLevel id="sub_60" nominalV="138.0" lowVoltageLimit="131.1" highVoltageLimit="144.9" topologyKind="BUS_BREAKER">
            <iidm:busBreakerTopology>
                <iidm:bus id="bus_60" name="Bus_60"/>
            </iidm:busBreakerTopology>
            <iidm:generator id="gen_60_39" name="Gen_60" energySource="OTHER" minP="-4999.0" maxP="4999.0" voltageRegulatorOn="true" targetP="203.83005899692748" targetV="138.0" targetQ="0.0" bus="bus_60" connectableBus="bus_60">
                <iidm:alias type="CGMES.Terminal1">gen_60_39_SM_T_1</iidm:alias>
                <iidm:property name="CGMES.GeneratingUnit" value="gen_60_39_GU"/>
                <iidm:property name="CGMES.RegulatingControl" value="gen_60_39_RC"/>
                <iidm:minMaxReactiveLimits minQ="-13.074669236479583" maxQ="85.71617826892506"/>
            </iidm:generator>
        </iidm:voltageLevel>
        <iidm:voltageLevel id="sub_61" nominalV="138.0" lowVoltageLimit="131.1" highVoltageLimit="144.9" topologyKind="BUS_BREAKER">
            <iidm:busBreakerTopology>
                <iidm:bus id="bus_61" name="Bus_61"/>
            </iidm:busBreakerTopology>
            <iidm:generator id="gen_61_40" name="Gen_61" energySource="OTHER" minP="-4999.0" maxP="4999.0" voltageRegulatorOn="true" targetP="19.83884252631458" targetV="138.0" targetQ="0.0" bus="bus_61" connectableBus="bus_61">
                <iidm:alias type="CGMES.Terminal1">gen_61_40_SM_T_1</iidm:alias>
                <iidm:property name="CGMES.GeneratingUnit" value="gen_61_40_GU"/>
                <iidm:property name="CGMES.RegulatingControl" value="gen_61_40_RC"/>
                <iidm:minMaxReactiveLimits minQ="-0.5384986741658344" maxQ="10.523461296232501"/>
            </iidm:generator>
        </iidm:voltageLevel>
        <iidm:voltageLevel id="sub_62" nominalV="138.0" lowVoltageLimit="131.1" highVoltageLimit="144.9" topologyKind="BUS_BREAKER">
            <iidm:busBreakerTopology>
                <iidm:bus id="bus_62" name="Bus_62"/>
            </iidm:busBreakerTopology>
            <iidm:load id="load_62_21" name="Load_62" loadType="UNDEFINED" p0="150.78448715540168" q0="0.0" bus="bus_62" connectableBus="bus_62">
                <iidm:alias type="CGMES.Terminal1">load_62_21_EC_T_1</iidm:alias>
            </iidm:load>
        </iidm:voltageLevel>
        <iidm:voltageLevel id="sub_63" nominalV="138.0" lowVoltageLimit="131.1" highVoltageLimit="144.9" topologyKind="BUS_BREAKER">
            <iidm:busBreakerTopology>
                <iidm:bus id="bus_63" name="Bus_63"/>
            </iidm:busBreakerTopology>
            <iidm:generator id="gen_63_41" name="Gen_63" energySource="OTHER" minP="-4999.0" maxP="4999.0" voltageRegulatorOn="true" targetP="237.88542515890973" targetV="138.0" targetQ="0.0" bus="bus_63" connectableBus="bus_63">
                <iidm:alias type="CGMES.Terminal1">gen_63_41_SM_T_1</iidm:alias>
                <iidm:property name="CGMES.GeneratingUnit" value="gen_63_41_GU"/>
                <iidm:property name="CGMES.RegulatingControl" value="gen_63_41_RC"/>
                <iidm:minMaxReactiveLimits minQ="-40.7622349470869" maxQ="129.33782567147477"/>
            </iidm:generator>
        </iidm:voltageLevel>
        <iidm:voltageLevel id="sub_64" nominalV="138.0" lowVoltageLimit="131.1" highVoltageLimit="144.9" topologyKind="BUS_BREAKER">
            <iidm:busBreakerTopology>
                <iidm:bus id="bus_64" name="Bus_64"/>
            </iidm:busBreakerTopology>
            <iidm:load id="load_64_22" name="Load_64" loadType="UNDEFINED" p0="219.25901620633647" q0="0.0" bus="bus_64" connectableBus="bus_64">
                <iidm:alias type="CGMES.Terminal1">load_64_22_EC_T_1</iidm:alias>
            </iidm:load>
        </iidm:voltageLevel>
        <iidm:voltageLevel id="sub_65" nominalV="138.0" lowVoltageLimit="131.1" highVoltageLimit="144.9" topologyKind="BUS_BREAKER">
            <iidm:busBreakerTopology>
                <iidm:bus id="bus_65" name="Bus_65"/>
            </iidm:busBreakerTopology>
            <iidm:load id="load_65_23" name="Load_65" loadType="UNDEFINED" p0="4.299139506968661" q0="0.0" bus="bus_65" connectableBus="bus_65">
                <iidm:alias type="CGMES.Terminal1">load_65_23_EC_T_1</iidm:alias>
            </iidm:load>
        </iidm:voltageLevel>
        <iidm:voltageLevel id="sub_66" nominalV="138.0" lowVoltageLimit="131.1" highVoltageLimit="144.9" topologyKind="BUS_BREAKER">
            <iidm:busBreakerTopology>
                <iidm:bus id="bus_66" name="Bus_66"/>
            </iidm:busBreakerTopology>
            <iidm:load id="load_66_24" name="Load_66" loadType="UNDEFINED" p0="660.049848420603" q0="0.0" bus="bus_66" connectableBus="bus_66">
                <iidm:alias type="CGMES.Terminal1">load_66_24_EC_T_1</iidm:alias>
            </iidm:load>
        </iidm:voltageLevel>
        <iidm:voltageLevel id="sub_67" nominalV="138.0" lowVoltageLimit="131.1" highVoltageLimit="144.9" topologyKind="BUS_BREAKER">
            <iidm:busBreakerTopology>
                <iidm:bus id="bus_67" name="Bus_67"/>
            </iidm:busBreakerTopology>
            <iidm:generator id="gen_67_42" name="Gen_67" energySource="OTHER" minP="-4999.0" maxP="4999.0" voltageRegulatorOn="true" targetP="96.35464866219093" targetV="138.0" targetQ="0.0" bus="bus_67" connectableBus="bus_67">
                <iidm:alias type="CGMES.Terminal1">gen_67_42_SM_T_1</iidm:alias>
                <iidm:property name="CGMES.GeneratingUnit" value="gen_67_42_GU"/>
                <iidm:property name="CGMES.RegulatingControl" value="gen_67_42_RC"/>
                <iidm:minMaxReactiveLimits minQ="-15.940331822284938" maxQ="60.608205322224705"/>
            </iidm:generator>
        </iidm:voltageLevel>
        <iidm:voltageLevel id="sub_68" nominalV="138.0" lowVoltageLimit="131.1" highVoltageLimit="144.9" topologyKind="BUS_BREAKER">
            <iidm:busBreakerTopology>
                <iidm:bus id="bus_68" name="Bus_68"/>
            </iidm:busBreakerTopology>
            <iidm:load id="load_68_25" name="Load_68" loadType="UNDEFINED" p0="83.15061330944057" q0="0.0" bus="bus_68" connectableBus="bus_68">
                <iidm:alias type="CGMES.Terminal1">load_68_25_EC_T_1</iidm:alias>
            </iidm:load>
        </iidm:voltageLevel>
        <iidm:voltageLevel id="sub_69" nominalV="138.0" lowVoltageLimit="131.1" highVoltageLimit="144.9" topologyKind="BUS_BREAKER">
            <iidm:busBreakerTopology>
                <iidm:bus id="bus_69" name="Bus_69"/>
            </iidm:busBreakerTopology>
            <iidm:generator id="gen_69_43" name="Gen_69" energySource="OTHER" minP="-4999.0" maxP="4999.0" voltageRegulatorOn="true" targetP="0.0" targetV="138.0" targetQ="0.0" bus="bus_69" connectableBus="bus_69">
                <iidm:alias type="CGMES.Terminal1">gen_69_43_SM_T_1</iidm:alias>
                <iidm:property name="CGMES.GeneratingUnit" value="gen_69_43_GU"/>
                <iidm:property name="CGMES.RegulatingControl" value="gen_69_43_RC"/>
                <iidm:minMaxReactiveLimits minQ="-24.75711200972188" maxQ="167.06856233088874"/>
            </iidm:generator>
        </iidm:voltageLevel>
        <iidm:voltageLevel id="sub_70" nominalV="138.0" lowVoltageLimit="131.1" highVoltageLimit="144.9" topologyKind="BUS_BREAKER">
            <iidm:busBreakerTopology>
                <iidm:bus id="bus_70" name="Bus_70"/>
            </iidm:busBreakerTopology>
            <iidm:load id="load_70_26" name="Load_70" loadType="UNDEFINED" p0="76.61037332401766" q0="0.0" bus="bus_70" connectableBus="bus_70">
                <iidm:alias type="CGMES.Terminal1">load_70_26_EC_T_1</iidm:alias>
            </iidm:load>
        </iidm:voltageLevel>
        <iidm:voltageLevel id="sub_71" nominalV="138.0" lowVoltageLimit="131.1" highVoltageLimit="144.9" topologyKind="BUS_BREAKER">
            <iidm:busBreakerTopology>
                <iidm:bus id="bus_71" name="Bus_71"/>
            </iidm:busBreakerTopology>
            <iidm:generator id="gen_71_0" name="Ext_Grid_71" energySource="OTHER" minP="-4999.0" maxP="4999.0" voltageRegulatorOn="true" targetP="1.0E-4" targetV="138.0" targetQ="0.0" bus="bus_71" connectableBus="bus_71">
                <iidm:alias type="CGMES.Terminal1">gen_71_0_SM_T_1</iidm:alias>
                <iidm:property name="CGMES.GeneratingUnit" value="gen_71_0_GU"/>
                <iidm:property name="CGMES.RegulatingControl" value="gen_71_0_RC"/>
                <iidm:minMaxReactiveLimits minQ="-46.608716102386516" maxQ="1447.119158952802"/>
            </iidm:generator>
        </iidm:voltageLevel>
        <iidm:voltageLevel id="sub_72" nominalV="138.0" lowVoltageLimit="131.1" highVoltageLimit="144.9" topologyKind="BUS_BREAKER">
            <iidm:busBreakerTopology>
                <iidm:bus id="bus_72" name="Bus_72"/>
            </iidm:busBreakerTopology>
            <iidm:generator id="gen_72_44" name="Gen_72" energySource="OTHER" minP="-4999.0" maxP="4999.0" voltageRegulatorOn="true" targetP="17.79470592749789" targetV="138.0" targetQ="0.0" bus="bus_72" connectableBus="bus_72">
                <iidm:alias type="CGMES.Terminal1">gen_72_44_SM_T_1</iidm:alias>
                <iidm:property name="CGMES.GeneratingUnit" value="gen_72_44_GU"/>
                <iidm:property name="CGMES.RegulatingControl" value="gen_72_44_RC"/>
                <iidm:minMaxReactiveLimits minQ="-4.054550291185664" maxQ="7.169877235867356"/>
            </iidm:generator>
        </iidm:voltageLevel>
        <iidm:voltageLevel id="sub_73" nominalV="138.0" lowVoltageLimit="131.1" highVoltageLimit="144.9" topologyKind="BUS_BREAKER">
            <iidm:busBreakerTopology>
                <iidm:bus id="bus_73" name="Bus_73"/>
            </iidm:busBreakerTopology>
            <iidm:generator id="gen_73_45" name="Gen_73" energySource="OTHER" minP="-4999.0" maxP="4999.0" voltageRegulatorOn="true" targetP="123.38488790300725" targetV="138.0" targetQ="0.0" bus="bus_73" connectableBus="bus_73">
                <iidm:alias type="CGMES.Terminal1">gen_73_45_SM_T_1</iidm:alias>
                <iidm:property name="CGMES.GeneratingUnit" value="gen_73_45_GU"/>
                <iidm:property name="CGMES.RegulatingControl" value="gen_73_45_RC"/>
                <iidm:minMaxReactiveLimits minQ="-30.12417003553948" maxQ="63.16546696052676"/>
            </iidm:generator>
        </iidm:voltageLevel>
        <iidm:voltageLevel id="sub_74" nominalV="138.0" lowVoltageLimit="131.1" highVoltageLimit="144.9" topologyKind="BUS_BREAKER">
            <iidm:busBreakerTopology>
                <iidm:bus id="bus_74" name="Bus_74"/>
            </iidm:busBreakerTopology>
            <iidm:load id="load_74_27" name="Load_74" loadType="UNDEFINED" p0="151.73654725101127" q0="0.0" bus="bus_74" connectableBus="bus_74">
                <iidm:alias type="CGMES.Terminal1">load_74_27_EC_T_1</iidm:alias>
            </iidm:load>
        </iidm:voltageLevel>
        <iidm:voltageLevel id="sub_75" nominalV="138.0" lowVoltageLimit="131.1" highVoltageLimit="144.9" topologyKind="BUS_BREAKER">
            <iidm:busBreakerTopology>
                <iidm:bus id="bus_75" name="Bus_75"/>
            </iidm:busBreakerTopology>
            <iidm:load id="load_75_28" name="Load_75" loadType="UNDEFINED" p0="75.54477114581911" q0="0.0" bus="bus_75" connectableBus="bus_75">
                <iidm:alias type="CGMES.Terminal1">load_75_28_EC_T_1</iidm:alias>
            </iidm:load>
        </iidm:voltageLevel>
        <iidm:voltageLevel id="sub_76" nominalV="138.0" lowVoltageLimit="131.1" highVoltageLimit="144.9" topologyKind="BUS_BREAKER">
            <iidm:busBreakerTopology>
                <iidm:bus id="bus_76" name="Bus_76"/>
            </iidm:busBreakerTopology>
            <iidm:load id="load_76_29" name="Load_76" loadType="UNDEFINED" p0="319.7744844058082" q0="0.0" bus="bus_76" connectableBus="bus_76">
                <iidm:alias type="CGMES.Terminal1">load_76_29_EC_T_1</iidm:alias>
            </iidm:load>
        </iidm:voltageLevel>
        <iidm:voltageLevel id="sub_77" nominalV="138.0" lowVoltageLimit="131.1" highVoltageLimit="144.9" topologyKind="BUS_BREAKER">
            <iidm:busBreakerTopology>
                <iidm:bus id="bus_77" name="Bus_77"/>
            </iidm:busBreakerTopology>
            <iidm:generator id="gen_77_46" name="Gen_77" energySource="OTHER" minP="-4999.0" maxP="4999.0" voltageRegulatorOn="true" targetP="84.98077914486956" targetV="138.0" targetQ="0.0" bus="bus_77" connectableBus="bus_77">
                <iidm:alias type="CGMES.Terminal1">gen_77_46_SM_T_1</iidm:alias>
                <iidm:property name="CGMES.GeneratingUnit" value="gen_77_46_GU"/>
                <iidm:property name="CGMES.RegulatingControl" value="gen_77_46_RC"/>
                <iidm:minMaxReactiveLimits minQ="-27.76334410994846" maxQ="36.684735764470176"/>
            </iidm:generator>
        </iidm:voltageLevel>
...